*HEADING
CalculiX FEA model generated from: 00004968.step
Generated by: deepcad_to_inp.py

*NODE, NSET=ALL_NODES
1, 0.235537, 0.000000, 0.500000
2, 0.235537, -0.661157, 0.500000
3, -0.235537, -0.661157, 0.500000
4, -0.235537, 0.000000, 0.500000
5, -0.235537, -0.661157, -0.500000
6, -0.235537, 0.000000, -0.500000
7, 0.235537, 0.000000, -0.500000
8, 0.235537, -0.661157, -0.500000
9, 0.210744, 0.000000, 0.475207
10, 0.210744, -0.661157, 0.475207
11, -0.210744, -0.661157, 0.475207
12, -0.210744, 0.000000, 0.475207
13, -0.210744, -0.661157, -0.475207
14, -0.210744, 0.000000, -0.475207
15, 0.210744, 0.000000, -0.475207
16, 0.210744, -0.661157, -0.475207
17, -0.235537, -0.661157, 0.010825
18, -0.235537, 0.000000, 0.010825
19, 0.235537, -0.661157, 0.010825
20, 0.235537, 0.000000, 0.010825
** ... 4 like lines cut

*ELEMENT, TYPE=C3D4, ELSET=ALL_ELEMENTS
1, 3, 1, 11, 4
2, 14, 6, 15, 16
3, 8, 7, 15, 24
4, 8, 7, 24, 20
5, 13, 6, 21, 14
6, 17, 11, 21, 18
7, 17, 5, 18, 21
8, 2, 1, 19, 10
9, 11, 4, 12, 18
10, 4, 3, 17, 11
11, 8, 6, 16, 15
12, 6, 5, 8, 16
13, 11, 4, 18, 17
14, 2, 1, 10, 3
15, 7, 6, 8, 15
16, 14, 6, 21, 22
17, 12, 11, 18, 22
18, 13, 6, 14, 16
19, 6, 5, 16, 13
20, 18, 11, 21, 22
** ... 16 like lines cut

*NSET, NSET=CONSTRAINT
5, 6, 7, 8, 13, 14, 15, 16

*NSET, NSET=LOAD
1, 2, 3, 4, 9, 10, 11, 12

*MATERIAL, NAME=ALUMINIUM_6061
*ELASTIC
69000.0, 0.330

*SOLID SECTION, ELSET=ALL_ELEMENTS, MATERIAL=ALUMINIUM_6061

*BOUNDARY
CONSTRAINT, 1, 3

*STEP, NLGEOM=NO
*STATIC
0.1, 1.0

*CLOAD
LOAD, 3, -125.000000

*NODE FILE
U, RF
*EL FILE
S, E

*END STEP
