*HEADING
USES SUBSTRUCTURE GENERATION FILE boltpipeflange_3d_cyclsym_gen.inp
***************************************************************************
***************************************************************************
**these are the original nodes (0 - 22.5)
*NODE, INPUT=boltpipeflange_3d_node.inp,NSET=NO22
**these are the reflected nodes (22.5 -  45)
*NCOPY,CHANGE NUMBER=30000, OLD SET = NO22, REFLECT = MIRROR
23.097,0., -9.56709, 76.2201,0.,-31.5714
23.097,73.,-9.56709
**
** THE ABOVE NODAL COORDS ARE REQUIRED ONLY FOR THE ELEMENTS OF THE BOLT
** AND THE GASKET.  MAY WANT TO REREAD ONLY THESE ELEMENT NODES?
**
** One single substructure 0-45 deg
**
*ELEMENT, TYPE=Z9994, ELSET=SUP45,FILE=substr45
2003,
25124,25125,25126,25127,25128,25129,25130,25131,25132,25133,
25134,25135,25136,25137,25138,25139,25140,
2589 ,2578 ,2567 ,2556 ,2545 ,2534 ,2523 ,2512 ,2501,
2590 ,2579 ,2568 ,2557 ,2546 ,2535 ,2524 ,2513 ,2502,
2591, 2580 ,2569 ,2558 ,2547 ,2536 ,2525 ,2514 ,2503,
2592, 2581 ,2570 ,2559 ,2548 ,2537 ,2526 ,2515 ,2504,
2593, 2582 ,2571 ,2560 ,2549 ,2538 ,2527 ,2516 ,2505,
27124,27125,27126,27127,27128,27129,27130,27131,27132,27133,
27134,27135,27136,27137,27138,27139,27140,
2159, 2158, 2157, 2156, 2155, 2154,
2185, 2184, 2183, 2182, 2181, 2180,
2211, 2210, 2209, 2208, 2207, 2206,
2237, 2236, 2235, 2234, 2233, 2232,
2263, 2262, 2261, 2260, 2259, 2258,
2289, 2288, 2287, 2286, 2285, 2284,
2315, 2314, 2313, 2312, 2311, 2310,
2341, 2340, 2339, 2338, 2337, 2336,
2367, 2366, 2365, 2364, 2363, 2362,
2585, 2574 ,2563 ,2552 ,2541 ,2530 ,2519 ,2508,
** ... 4 like lines cut
** 0-22.5: nodes in contact with the bolt
8881, 8882, 8884, 8886, 8887, 8889, 8891, 8892, 8894, 8896,
8897, 8899, 8901, 8902, 9168, 9169, 9171, 9173, 9174, 9176,
9178, 9179, 9181, 9183, 9184, 9186, 9188, 9189, 9455, 9456,
9458, 9460, 9461, 9463, 9465, 9466, 9468, 9470, 9471, 9473,
9475, 9476, 9742, 9743, 9744, 9745, 9746, 9747, 9749, 9750,
9751, 9753, 9754, 9755, 9756, 9757, 9758, 9760, 9761, 9762,
9764, 9765, 9766, 9767, 9768, 9769, 9771, 9772, 9773, 9775,
9776, 9777, 9778, 9779, 9780, 9782, 9783, 9784, 9786, 9787,
9788, 9789, 9790, 9791,10361,10362,10364,10366,10367,10369,
10371,10372,10374,10376,10377,10379,10381,10382,10648,10649,
10651,10653,10654,10656,10658,10659,10661,10663,10664,10666,
10668,10669,10935,10940,10945,10950,10955,25008,25537,25538,
25539,25540,25541,25542,25543,25544,25545,25658,25659,25660,
25661,25662,25663,25664,25665,
** 0-22.5: some extra nodes on the 22.5 line which will be welded
**27092,27499,27519,27349,27541,27605,
**
** 22.5-45
**
** 22.5-45: nodes in contact with the gasket
55124 ,55125 ,55126 ,55127 ,55128 ,55129 ,55130 ,55131, 55132, 55133,
55134 ,55135 ,55136 ,55137 ,55138 ,55139 ,55140 ,
32589 ,32578 ,32567 ,32556 ,32545 ,32534 ,32523 ,32512 ,32501,
32590 ,32579 ,32568 ,32557 ,32546 ,32535 ,32524 ,32513 ,32502,
32591 ,32580 ,32569 ,32558 ,32547 ,32536 ,32525 ,32514 ,32503,
32592 ,32581 ,32570 ,32559 ,32548 ,32537 ,32526 ,32515 ,32504,
32593 ,32582 ,32571 ,32560 ,32549 ,32538 ,32527 ,32516 ,32505,
**57124, 57125, 57126, 57127, 57128, 57129, 57130, 57131, 57132, 57133,
**57134, 57135, 57136, 57137, 57138, 57139, 57140,
32159, 32158, 32157, 32156, 32155, 32154,
32185, 32184, 32183, 32182, 32181, 32180,
32211, 32210, 32209, 32208, 32207, 32206,
32237, 32236, 32235, 32234, 32233, 32232,
32263, 32262, 32261, 32260, 32259, 32258,
32289, 32288, 32287, 32286, 32285, 32284,
32315, 32314, 32313, 32312, 32311, 32310,
32341, 32340, 32339, 32338, 32337, 32336,
32367, 32366, 32365, 32364, 32363, 32362,
32585, 32574 ,32563 ,32552 ,32541 ,32530 ,32519 ,32508,
32586, 32575 ,32564 ,32553 ,32542 ,32531 ,32520 ,32509,
32165, 32191, 32217, 32243, 32269, 32295, 32321, 32347,
32166, 32192, 32218, 32244, 32270, 32296, 32322, 32348,
32167, 32193, 32219, 32245, 32271, 32297, 32323, 32349,
** 22.5-45: nodes in contact with the bolt
38881, 38882, 38884, 38886, 38887, 38889, 38891, 38892, 38894, 38896,
38897, 38899, 38901, 38902, 39168, 39169, 39171, 39173, 39174, 39176,
39178, 39179, 39181, 39183, 39184, 39186, 39188, 39189, 39455, 39456,
39458, 39460, 39461, 39463, 39465, 39466, 39468, 39470, 39471, 39473,
39475, 39476, 39742, 39743, 39744, 39745, 39746, 39747, 39749, 39750,
39751, 39753, 39754, 39755, 39756, 39757, 39758, 39760, 39761, 39762,
39764, 39765, 39766, 39767, 39768, 39769, 39771, 39772, 39773, 39775,
39776, 39777, 39778, 39779, 39780, 39782, 39783, 39784, 39786, 39787,
39788, 39789, 39790, 39791, 40361, 40362, 40364, 40366, 40367, 40369,
40371, 40372, 40374, 40376, 40377, 40379, 40381, 40382, 40648, 40649,
40651, 40653, 40654, 40656, 40658, 40659, 40661, 40663, 40664, 40666,
40668, 40669, 40935, 40940, 40945, 40950, 40955, 55008, 55537, 55538,
55539, 55540, 55541, 55542, 55543, 55544, 55545, 55658, 55659, 55660,
55661, 55662, 55663, 55664, 55665,
**fr1_hub
25000, 25001, 25002, 25003, 25004, 25005, 25006, 25007, 25008, 25009, 25010,
25011, 25012, 25013, 25014, 25015, 25016, 25017, 25018, 25019, 25020, 25021,
25022, 25023, 25024, 25025, 25026, 25027, 25028, 25029, 25030, 25031, 25032,
25033, 25034, 25035, 25036, 25037, 25038, 25039, 25040, 25041, 25042, 25043,
25044, 25045, 25046, 25047, 25048, 25049, 25050, 25051, 25052, 25053, 25054,
25055, 25056, 25057, 25058, 25059, 25060, 25061, 25062, 25063, 25064, 25065,
25066, 25067, 25068, 25069, 25070, 25071, 25072, 25073, 25074, 25075, 25076,
25077, 25078, 25079, 25080, 25081, 25082, 25083, 25084, 25085, 25086, 25087,
25088, 25089, 25090, 25091, 25092, 25093, 25094, 25095, 25096, 25097,
25107, 25108, 25109, 25110, 25111, 25112, 25113, 25114, 25115, 25116, 25117,
25118, 25119, 25120, 25121, 25122, 25123, 25124, 25125, 25126, 25127, 25128,
25129, 25130, 25131, 25132, 25133, 25134, 25135, 25136, 25137, 25138, 25139,
25140,
25142, 25144, 25146, 25148, 25150, 25152, 25154, 25156,
25158, 25159, 25160, 25161, 25162, 25163, 25164, 25165, 25166, 25167, 25168,
25169, 25170, 25171, 25172, 25173, 25174, 25175, 25176, 25177, 25178, 25179,
25180, 25181, 25182, 25183, 25184, 25185, 25186, 25187, 25188, 25189, 25190,
25191, 25192, 25193, 25194, 25195, 25196, 25197, 25198, 25199, 25200, 25201,
25202, 25203, 25204, 25205, 25206, 25207, 25208, 25209, 25210, 25211, 25212,
25213, 25214, 25215, 25216, 25217, 25218, 25219, 25220, 25221, 25222, 25223,
** ... 54 like lines cut
**fr3_hub
55000, 55001, 55002, 55003, 55004, 55005, 55006, 55007, 55008, 55009, 55010,
55011, 55012, 55013, 55014, 55015, 55016, 55017, 55018, 55019, 55020, 55021,
55022, 55023, 55024, 55025, 55026, 55027, 55028, 55029, 55030, 55031, 55032,
55033, 55034, 55035, 55036, 55037, 55038, 55039, 55040, 55041, 55042, 55043,
55044, 55045, 55046, 55047, 55048, 55049, 55050, 55051, 55052, 55053, 55054,
55055, 55056, 55057, 55058, 55059, 55060, 55061, 55062, 55063, 55064, 55065,
55066, 55067, 55068, 55069, 55070, 55071, 55072, 55073, 55074, 55075, 55076,
55077, 55078, 55079, 55080, 55081, 55082, 55083, 55084, 55085, 55086, 55087,
55088, 55089, 55090, 55091, 55092, 55093, 55094, 55095, 55096, 55097,
55107, 55108, 55109, 55110, 55111, 55112, 55113, 55114, 55115, 55116, 55117,
55118, 55119, 55120, 55121, 55122, 55123, 55124, 55125, 55126, 55127, 55128,
55129, 55130, 55131, 55132, 55133, 55134, 55135, 55136, 55137, 55138, 55139,
55140,
55142, 55144, 55146, 55148, 55150, 55152, 55154, 55156,
55158, 55159, 55160, 55161, 55162, 55163, 55164, 55165, 55166, 55167, 55168,
55169, 55170, 55171, 55172, 55173, 55174, 55175, 55176, 55177, 55178, 55179,
55180, 55181, 55182, 55183, 55184, 55185, 55186, 55187, 55188, 55189, 55190,
55191, 55192, 55193, 55194, 55195, 55196, 55197, 55198, 55199, 55200, 55201,
55202, 55203, 55204, 55205, 55206, 55207, 55208, 55209, 55210, 55211, 55212,
55213, 55214, 55215, 55216, 55217, 55218, 55219, 55220, 55221, 55222, 55223,
** ... 54 like lines cut
*SUBSTRUCTURE PROPERTY, ELSET=SUP45, POSITION TOL=0.0001
**
*NSET, NSET=FR1_HUBo,UNSORTED
25000, 25001, 25002, 25003, 25004, 25005, 25006, 25007, 25008, 25009, 25010,
25011, 25012, 25013, 25014, 25015, 25016, 25017, 25018, 25019, 25020, 25021,
25022, 25023, 25024, 25025, 25026, 25027, 25028, 25029, 25030, 25031, 25032,
25033, 25034, 25035, 25036, 25037, 25038, 25039, 25040, 25041, 25042, 25043,
25044, 25045, 25046, 25047, 25048, 25049, 25050, 25051, 25052, 25053, 25054,
25055, 25056, 25057, 25058, 25059, 25060, 25061, 25062, 25063, 25064, 25065,
25066, 25067, 25068, 25069, 25070, 25071, 25072, 25073, 25074, 25075, 25076,
25077, 25078, 25079, 25080, 25081, 25082, 25083, 25084, 25085, 25086, 25087,
25088, 25089, 25090, 25091, 25092, 25093, 25094, 25095, 25096, 25097,
25107, 25108, 25109, 25110, 25111, 25112, 25113, 25114, 25115, 25116, 25117,
25118, 25119, 25120, 25121, 25122, 25123, 25124, 25125, 25126, 25127, 25128,
25129, 25130, 25131, 25132, 25133, 25134, 25135, 25136, 25137, 25138, 25139,
25140,
25142, 25144, 25146, 25148, 25150, 25152, 25154, 25156,
25158, 25159, 25160, 25161, 25162, 25163, 25164, 25165, 25166, 25167, 25168,
25169, 25170, 25171, 25172, 25173, 25174, 25175, 25176, 25177, 25178, 25179,
25180, 25181, 25182, 25183, 25184, 25185, 25186, 25187, 25188, 25189, 25190,
25191, 25192, 25193, 25194, 25195, 25196, 25197, 25198, 25199, 25200, 25201,
25202, 25203, 25204, 25205, 25206, 25207, 25208, 25209, 25210, 25211, 25212,
25213, 25214, 25215, 25216, 25217, 25218, 25219, 25220, 25221, 25222, 25223,
** ... 54 like lines cut
**
**nodes on the front face of the hub (22.5-45)
**
*NSET, NSET=FR3_HUBo,UNSORTED
55000, 55001, 55002, 55003, 55004, 55005, 55006, 55007, 55008, 55009, 55010,
55011, 55012, 55013, 55014, 55015, 55016, 55017, 55018, 55019, 55020, 55021,
55022, 55023, 55024, 55025, 55026, 55027, 55028, 55029, 55030, 55031, 55032,
55033, 55034, 55035, 55036, 55037, 55038, 55039, 55040, 55041, 55042, 55043,
55044, 55045, 55046, 55047, 55048, 55049, 55050, 55051, 55052, 55053, 55054,
55055, 55056, 55057, 55058, 55059, 55060, 55061, 55062, 55063, 55064, 55065,
55066, 55067, 55068, 55069, 55070, 55071, 55072, 55073, 55074, 55075, 55076,
55077, 55078, 55079, 55080, 55081, 55082, 55083, 55084, 55085, 55086, 55087,
55088, 55089, 55090, 55091, 55092, 55093, 55094, 55095, 55096, 55097,
55107, 55108, 55109, 55110, 55111, 55112, 55113, 55114, 55115, 55116, 55117,
55118, 55119, 55120, 55121, 55122, 55123, 55124, 55125, 55126, 55127, 55128,
55129, 55130, 55131, 55132, 55133, 55134, 55135, 55136, 55137, 55138, 55139,
55140,
55142, 55144, 55146, 55148, 55150, 55152, 55154, 55156,
55158, 55159, 55160, 55161, 55162, 55163, 55164, 55165, 55166, 55167, 55168,
55169, 55170, 55171, 55172, 55173, 55174, 55175, 55176, 55177, 55178, 55179,
55180, 55181, 55182, 55183, 55184, 55185, 55186, 55187, 55188, 55189, 55190,
55191, 55192, 55193, 55194, 55195, 55196, 55197, 55198, 55199, 55200, 55201,
55202, 55203, 55204, 55205, 55206, 55207, 55208, 55209, 55210, 55211, 55212,
55213, 55214, 55215, 55216, 55217, 55218, 55219, 55220, 55221, 55222, 55223,
** ... 54 like lines cut
*BOUNDARY
FR1_HUBo,3
** symmetry conditions on the 45 face
***EQUATION
** 2
** FR3_HUBo,3,1., FR3_HUBo,1,1.
*NODE
89999, 0.0, 0.0, 0.0
99999, 0.0, 1.0, 0.0
*MPC
CYCLSYM, FR1_HUBo, FR3_HUBo, 89999, 99999
********************************
** define elements in the gasket (0 - 22.5)
********************************
*ELEMENT, TYPE=C3D20R, ELSET=PID1
2217,   25814,   17400,   24001,   25816,   25819,   17426,   24010,
25821,   17399,   17406,   24000,   25815,   17425,   17432,   24009,
25820,   25817,   17417,   24006,   25818
2218,   17400,   17402,   24003,   24001,   17426,   17428,   24012,
24010,   17401,   17407,   24002,   17406,   17427,   17433,   24011,
17432,   17417,   17418,   24007,   24006
2219,   17402,   17404,   24005,   24003,   17428,   17430,   24014,
24012,   17403,   17408,   24004,   17407,   17429,   17434,   24013,
17433,   17418,   17419,   24008,   24007
2220,   25819,   17426,   24010,   25821,   25824,   17452,   24019,
25826,   17425,   17432,   24009,   25820,   17451,   17458,   24018,
25825,   25822,   17443,   24015,   25823
2221,   17426,   17428,   24012,   24010,   17452,   17454,   24021,
24019,   17427,   17433,   24011,   17432,   17453,   17459,   24020,
17458,   17443,   17444,   24016,   24015
2222,   17428,   17430,   24014,   24012,   17454,   17456,   24023,
24021,   17429,   17434,   24013,   17433,   17455,   17460,   24022,
17459,   17444,   17445,   24017,   24016
2223,   25824,   17452,   24019,   25826,   25829,   17478,   24028,
25831,   17451,   17458,   24018,   25825,   17477,   17484,   24027,
** ... 124 like lines cut
**
**
**GASKET BOTTOM
**
*NSET,NSET=GASK_B1,GENERATE
24000,24138
25816,25856,10
25818,25848,10
25821,25851,10
25823,25853,10
27693,27709
*BOUNDARY
GASK_B1,2
**
**GASKET FRONT EXCEPT FOR NODES THAT ARE USED BY INTERFACE ELEMENTS
**
*NSET,NSET=GASK_F1,GENERATE
25815,25855,5
25816,25856,5
25818,25853,5
** POZOR POZOR - nodes on gasket at the interface are constrained
25814,25854,5
25817,25852,5
*BOUNDARY
GASK_F1,3
**
**  GASKET BACK including nodes used by interface elements.
**
*NSET,NSET=BAGA1,GENERATE
27667,27675
27693,27709
27676,27692
**
*SOLID SECTION, ELSET=PID1, MATERIAL=MID2
1.,
**
** gasket_material
**
*MATERIAL, NAME=MID2
**
*ELASTIC,TYPE=ISOTROPIC
68700.,         0.3
********************************
** define elements in the gasket (22.5 - 45)
********************************
*ELCOPY,ELEMENT SHIFT=30000,OLD SET=PID1,SHIFT NODES=30000,NEW SET=PID31,REFLECT
**
**  GASKET BOTTOM
**
*NSET,NSET=GASK_B3,GENERATE
54000,54138
55816,55856,10
55818,55848,10
55821,55851,10
55823,55853,10
57693,57709
*BOUNDARY
GASK_B3,2
**
**  GASKET FRONT EXCEPT FOR NODES THAT ARE USED BY INTERFACE ELEMENTS
**
*NSET,NSET=GASK_F3,GENERATE
55815,55855,5
55816,55856,5
55818,55853,5
** POZOR POZOR - nodes on gasket at the interface are constrained
55814,55854,5
55817,55852,5
*TRANSFORM, NSET=GASK_F3
1.,0.,-1.,0.,1.,0.
*BOUNDARY
GASK_F3,3
**
**  GASKET BACK including nodes used by interface elements.
**
*NSET,NSET=BAGA3,GENERATE
57667,57675
57693,57709
57676,57692
**
** Weld together back nodes of the gaskets (including interface nodes)
*EQUATION
2,
BAGA3,1,1., BAGA1,1,-1.
*EQUATION
2,
BAGA3,2,1., BAGA1,2,-1.
*EQUATION
2,
BAGA3,3,1., BAGA1,3,-1.
**
** gasket_properties
**
*SOLID SECTION, ELSET=PID31, MATERIAL=MID2
1.,
**
******************************
** define elements in the bolt (0 - 22.5)
******************************
*ELEMENT, TYPE=C3D20R, ELSET=PID2
10030,   17976,   17978,   17984,   17982,   18006,   18008,   18014,
18012,   17977,   17981,   17983,   17980,   18007,   18011,   18013,
18010,   17998,   17999,   18001,   18000
10031,   17978,   17915,   17913,   17984,   18008,   17924,   17922,
18014,   17979,   17914,   17985,   17981,   18009,   17923,   18015,
18011,   17999,   17918,   17917,   18001
10032,   17982,   17984,   17990,   17988,   18012,   18014,   18020,
18018,   17983,   17987,   17989,   17986,   18013,   18017,   18019,
18016,   18000,   18001,   18003,   18002
10033,   17984,   17913,   17911,   17990,   18014,   17922,   17920,
18020,   17985,   17912,   17991,   17987,   18015,   17921,   18021,
18017,   18001,   17917,   17916,   18003
10034,   17988,   17990,   17996,   17994,   18018,   18020,   18026,
18024,   17989,   17993,   17995,   17992,   18019,   18023,   18025,
18022,   18002,   18003,   18005,   18004
10035,   17990,   17911,   17876,   17996,   18020,   17920,   17887,
18026,   17991,   17910,   17997,   17993,   18021,   17919,   18027,
18023,   18003,   17916,   17880,   18005
10036,   18006,   18008,   18014,   18012,   18036,   18038,   18044,
18042,   18007,   18011,   18013,   18010,   18037,   18041,   18043,
** ... 1276 like lines cut
** bolt_properties
**
*SOLID SECTION, ELSET=PID2, MATERIAL=MID3
1.,
**
** bolt_material
**
*MATERIAL, NAME=MID3
**
*ELASTIC,TYPE=ISOTROPIC
206000.,         0.3
**
**BOLT BOTTOM
**
*NSET,NSET=BOL_B1,GENERATE
24139,24221
26129,26135
26138,26141
26144,26147
*BOUNDARY
BOL_B1,2
**
**BOLT FRONT EXCEPT FOR NODES THAT ARE USED BY INTERFACE ELEMENTS
**
*NSET,NSET=BOL_F1,GENERATE
25857,25862
25864,25869
25871,26183
26192,26227
*BOUNDARY
BOL_F1,3
**
******************************
** define elements in the bolt (22.5 - 45)
******************************
*ELCOPY,ELEMENT SHIFT=30000,OLD SET=PID2,SHIFT NODES=30000,NEW SET=PID32,REFLECT
*SOLID SECTION, ELSET=PID32, MATERIAL=MID3
1.,
**
**BOLT BOTTOM
**
*NSET,NSET=BOL_B3,GENERATE
54139,54221
56129,56135
56138,56141
56144,56147
*BOUNDARY
BOL_B3,2
**
**BOLT FRONT EXCEPT FOR NODES THAT ARE USED BY INTERFACE ELEMENTS (face 45)
**
*NSET,NSET=BOL_F3,GENERATE
55857,55862
55864,55869
55871,56183
56192,56227
*TRANSFORM, NSET=BOL_F3
1.,0.,-1.,0.,1.,0.
*BOUNDARY
BOL_F3,3
**
**define the contact nodes on bottom hub (0-22.5); same set as bo_hu;
**
*NSET, NSET=BO1_HR
25124,25125,25126,25127,25128,25129,25130,25131,25132,25133,
25134,25135,25136,25137,25138,25139,25140,
2589 ,2578 ,2567 ,2556 ,2545 ,2534 ,2523 ,2512 ,2501,
2590 ,2579 ,2568 ,2557 ,2546 ,2535 ,2524 ,2513 ,2502,
2591, 2580 ,2569 ,2558 ,2547 ,2536 ,2525 ,2514 ,2503,
2592, 2581 ,2570 ,2559 ,2548 ,2537 ,2526 ,2515 ,2504,
2593, 2582 ,2571 ,2560 ,2549 ,2538 ,2527 ,2516 ,2505,
27124,27125,27126,27127,27128,27129,27130,27131,27132,27133,
27134,27135,27136,27137,27138,27139,27140,
2159, 2158, 2157, 2156, 2155, 2154,
2185, 2184, 2183, 2182, 2181, 2180,
2211, 2210, 2209, 2208, 2207, 2206,
2237, 2236, 2235, 2234, 2233, 2232,
2263, 2262, 2261, 2260, 2259, 2258,
2289, 2288, 2287, 2286, 2285, 2284,
2315, 2314, 2313, 2312, 2311, 2310,
2341, 2340, 2339, 2338, 2337, 2336,
2367, 2366, 2365, 2364, 2363, 2362,
2585, 2574 ,2563 ,2552 ,2541 ,2530 ,2519 ,2508,
2586, 2575 ,2564 ,2553 ,2542 ,2531 ,2520 ,2509,
2165, 2191, 2217, 2243, 2269, 2295, 2321, 2347,
2166, 2192, 2218, 2244, 2270, 2296, 2322, 2348,
2167, 2193, 2219, 2245, 2271, 2297, 2323, 2349
**
**define the contact nodes on bottom hub (22.5-45); same set as bo_hu;
**
*NSET, NSET=BO3_HR
** Comment out next two lines to avoid SOLVER PROBLEMs
**55124 ,55125 ,55126 ,55127 ,55128 ,55129 ,55130 ,55131, 55132, 55133,
**55134 ,55135 ,55136 ,55137 ,55138 ,55139 ,55140 ,
32589 ,32578 ,32567 ,32556 ,32545 ,32534 ,32523 ,32512 ,32501,
32590 ,32579 ,32568 ,32557 ,32546 ,32535 ,32524 ,32513 ,32502,
32591 ,32580 ,32569 ,32558 ,32547 ,32536 ,32525 ,32514 ,32503,
32592 ,32581 ,32570 ,32559 ,32548 ,32537 ,32526 ,32515 ,32504,
32593 ,32582 ,32571 ,32560 ,32549 ,32538 ,32527 ,32516 ,32505,
57124, 57125, 57126, 57127, 57128, 57129, 57130, 57131, 57132, 57133,
57134, 57135, 57136, 57137, 57138, 57139, 57140,
32159, 32158, 32157, 32156, 32155, 32154,
32185, 32184, 32183, 32182, 32181, 32180,
32211, 32210, 32209, 32208, 32207, 32206,
32237, 32236, 32235, 32234, 32233, 32232,
32263, 32262, 32261, 32260, 32259, 32258,
32289, 32288, 32287, 32286, 32285, 32284,
32315, 32314, 32313, 32312, 32311, 32310,
32341, 32340, 32339, 32338, 32337, 32336,
32367, 32366, 32365, 32364, 32363, 32362,
32585, 32574 ,32563 ,32552 ,32541 ,32530 ,32519 ,32508,
32586, 32575 ,32564 ,32553 ,32542 ,32531 ,32520 ,32509,
32165, 32191, 32217, 32243, 32269, 32295, 32321, 32347,
32166, 32192, 32218, 32244, 32270, 32296, 32322, 32348,
32167, 32193, 32219, 32245, 32271, 32297, 32323, 32349
**
**define the contact nodes with the bolt (0-22.5); the same set as hu_bo;
**
*NSET, NSET=HU1_BR
8881, 8882, 8884, 8886, 8887, 8889, 8891, 8892, 8894, 8896,
8897, 8899, 8901, 8902, 9168, 9169, 9171, 9173, 9174, 9176,
9178, 9179, 9181, 9183, 9184, 9186, 9188, 9189, 9455, 9456,
9458, 9460, 9461, 9463, 9465, 9466, 9468, 9470, 9471, 9473,
9475, 9476, 9742, 9743, 9744, 9745, 9746, 9747, 9749, 9750,
9751, 9753, 9754, 9755, 9756, 9757, 9758, 9760, 9761, 9762,
9764, 9765, 9766, 9767, 9768, 9769, 9771, 9772, 9773, 9775,
9776, 9777, 9778, 9779, 9780, 9782, 9783, 9784, 9786, 9787,
9788, 9789, 9790, 9791,10361,10362,10364,10366,10367,10369,
10371,10372,10374,10376,10377,10379,10381,10382,10648,10649,
10651,10653,10654,10656,10658,10659,10661,10663,10664,10666,
10668,10669,10935,10940,10945,10950,10955,25008,25537,25538,
25539,25540,25541,25542,25543,25544,25545,25658,25659,25660,
25661,25662,25663,25664,25665
**
**define the contact nodes with the bolt (22.5-45); the same set as hu_bo;
**
*NSET, NSET=HU3_BR
38881, 38882, 38884, 38886, 38887, 38889, 38891, 38892, 38894, 38896,
38897, 38899, 38901, 38902, 39168, 39169, 39171, 39173, 39174, 39176,
39178, 39179, 39181, 39183, 39184, 39186, 39188, 39189, 39455, 39456,
39458, 39460, 39461, 39463, 39465, 39466, 39468, 39470, 39471, 39473,
39475, 39476, 39742, 39743, 39744, 39745, 39746, 39747, 39749, 39750,
39751, 39753, 39754, 39755, 39756, 39757, 39758, 39760, 39761, 39762,
39764, 39765, 39766, 39767, 39768, 39769, 39771, 39772, 39773, 39775,
39776, 39777, 39778, 39779, 39780, 39782, 39783, 39784, 39786, 39787,
39788, 39789, 39790, 39791, 40361, 40362, 40364, 40366, 40367, 40369,
40371, 40372, 40374, 40376, 40377, 40379, 40381, 40382, 40648, 40649,
40651, 40653, 40654, 40656, 40658, 40659, 40661, 40663, 40664, 40666,
40668, 40669, 40935, 40940, 40945, 40950, 40955, 55008, 55537, 55538,
55539, 55540, 55541, 55542, 55543, 55544, 55545, 55658, 55659, 55660,
55661, 55662, 55663, 55664, 55665
***************************************
**  Contact Between Gasket and Hub  *** (0-22.5) )22.5-45
***************************************
*** (0-22.5)
*ELSET,ELSET=PID7,GENERATE
2217,2240
*ELSET,ELSET=PID8,GENERATE
2241,2264
*surface,NAME=GASKET22
PID7,S3
PID8,S2
*surface,type=node, NAME=NBOHU22
BO1_HR,
*CONTACT PAIR, INTERACTION=ROUGH22, SMALL SLIDING, ADJUST=.1
NBOHU22, GASKET22
*SURFACE INTERACTION,NAME=ROUGH22
*FRICTION,ROUGH
*SURFACE BEHAVIOR, NO SEPARATION
***************************************
**  Contact Between Gasket and Hub  *** (22.5-45)
***************************************
*** (22.5 - 45)
*ELSET,ELSET=PID37,GENERATE
32217,32240
*ELSET,ELSET=PID38,GENERATE
32241,32264
*surface,NAME=GASKET45
PID37,S6
PID38,S2
*surface,type=node, NAME=NBOHU45
BO3_HR,
*CONTACT PAIR, INTERACTION=ROUGH45, SMALL SLIDING, ADJUST=.1
NBOHU45, GASKET45
*SURFACE INTERACTION,NAME=ROUGH45
*FRICTION,ROUGH
*SURFACE BEHAVIOR, NO SEPARATION
*********************************
**  Contact Between Bolt and Hub (0-22.5)
*********************************
*ELSET,ELSET=PID11,GENERATE
12096,12107
12060,12071
12024,12035
*surface,NAME=BOLT1
PID11,S2
*surface,type=node, NAME=NHUBBLT1
HU1_BR,
*CONTACT PAIR, INTERACTION=BLT_HUB1, SMALL SLIDING, HCRIT=1.1
NHUBBLT1,BOLT1
*SURFACE INTERACTION,NAME=BLT_HUB1
*FRICTION,ROUGH
*SURFACE BEHAVIOR, NO SEPARATION
*********************************
**  Contact Between Bolt and Hub (22.5 - 45)
*********************************
*ELSET,ELSET=PID41,GENERATE
42096,42107
42060,42071
42024,42035
*surface,NAME=BOLT3
PID41,S2
*surface,type=node, NAME=NHUBBLT3
HU3_BR,
*CONTACT PAIR, INTERACTION=BLT_HUB3, SMALL SLIDING, HCRIT=1.1
NHUBBLT3,BOLT3
*SURFACE INTERACTION,NAME=BLT_HUB3
*FRICTION,ROUGH
*SURFACE BEHAVIOR, NO SEPARATION
*************************************
*** Section for pretension loading (0-22.5)
*************************************
*ELSET, ELSET=PSET1
10135,   10136,   10137,   10138,   10139,   10140,   10183,   10184,
10185,   10186,   10187,   10188,   10231,   10232,   10233,   10234,
10235,   10236,   10291,   10292,   10293,   10294,   10295,   10296,
10297,   10298,    10299
*surface,NAME=PSECT1
PSET1,S2
*PRE-TENSION SECTION,SURFACE=PSECT1,NODE=29999
*************************************
*** Section for pretension loading (22.5 - 45)
*************************************
*ELSET, ELSET=PSET3
40135,   40136,   40137,   40138,   40139,   40140,   40183,   40184,
40185,   40186,   40187,   40188,   40231,   40232,   40233,   40234,
40235,   40236,   40291,   40292,   40293,   40294,   40295,   40296,
40297,   40298,   40299
*surface,NAME=PSECT3
PSET3,S2
*PRE-TENSION SECTION,SURFACE=PSECT3,NODE=59999
*************************************
*** node set for output
*************************************
*NSET,NSET=NOUT
25896,26228,25923,26184,26132
25464,25519,25008,25545,25765,25813,25140,25132,25124,25814,25834,25854
** interface nodes on z=0 plane
*NSET,NSET=INTFRONT
17608,   25854,   25849,   17582,   17607,   25852,   17581,
17599,    2502,   25124,   25126,    2513,    2501,   25125,    2512,
2508,
25008,   25664,   10664,   10669,   25665,   10950,   10666,
10955,   26228,   26230,   20245,   20243,   26229,   20253,   20244,
20252,
25664,   25662,   10659,   10664,   25663,   10945,   10661,
10950,   26230,   26232,   20247,   20245,   26231,   20254,   20246,
20253,
25662,   25660,   10654,   10659,   25661,   10940,   10656,
10945,   26232,   26234,   20249,   20247,   26233,   20255,   20248,
20254,
25660,   25658,   10649,   10654,   25659,   10935,   10651,
10940,   26234,   25870,   17973,   20249,   26235,   17974,   20250,
20255,
8902,    8897,   25543,   25545,    8899,    8896,   25544,
8901,   19803,   19805,   26186,   26184,   19804,   19799,   26185,
19798,
8897,    8892,   25541,   25543,    8894,    8891,   25542,
8896,   19805,   19807,   26188,   26186,   19806,   19800,   26187,
** ... 7 like lines cut
**
*RESTART,WRITE,FREQUENCY=100
*PREPRINT,ECHO=NO
**
*STEP,Convert Sdi=No
APPLY PRE-TENSION LOAD
**
*STATIC
1.0,1.0
*CLOAD
29999,1,7500.
59999,1,7500.
**
*NODE PRINT,FREQUENCY=1,NSET=NOUT
U,RF
*NODE PRINT,FREQUENCY=1,NSET=INTFRONT
U,RF
*NODE FILE,FREQUENCY=1,NSET=NOUT
U,RF
**
*CONTACT PRINT, MAIN=GASKET22
*CONTACT PRINT, MAIN=BOLT1
*CONTACT FILE , MAIN=GASKET45
*CONTACT FILE , MAIN=BOLT3
*PRINT, CONTACT=YES
**
**SUBSTRUCTURE PATH,ENTER ELEMENT=2001
**NODE FILE
**U
**SUBSTRUCTURE PATH,LEAVE
**
*END STEP

