** written by FreeCAD inp file writer for CalculiX,Abaqus meshes
** highest dimension mesh elements only.

** Nodes
*Node, NSET=Nall
1, 0, 0, 0
2, 0, 0, 3
3, 30, 0, 0
4, 30, 0, 3
5, 30, 30, 0
6, 30, 30, 3
7, 0, 30, 0
8, 0, 30, 3
9, 0, 0, 1.5
10, 30, 0, 1.5
11, 3.75, 0, 0
12, 7.5, 0, 0
13, 11.25, 0, 0
14, 15, 0, 0
15, 18.75, 0, 0
16, 22.5, 0, 0
17, 26.25, 0, 0
18, 1.875, 0, 0
19, 5.625, 0, 0
20, 9.375, 0, 0
** ... 1440 like lines cut


** Volume elements
*Element, TYPE=C3D10, ELSET=Evolumes
565, 94, 390, 727, 995, 1002, 1001, 835, 1004, 1003, 1005
566, 94, 79, 390, 995, 272, 459, 1002, 1004, 1006, 1003
567, 338, 675, 664, 998, 1008, 911, 1007, 1010, 1009, 1011
568, 338, 664, 327, 998, 1007, 1012, 573, 1010, 1011, 1013
569, 701, 364, 343, 997, 1015, 597, 1014, 1017, 1016, 1018
570, 704, 367, 327, 998, 1020, 574, 1019, 1022, 1021, 1013
571, 720, 680, 383, 997, 992, 1023, 1024, 1026, 1025, 1027
572, 343, 680, 701, 997, 1028, 934, 1014, 1018, 1025, 1017
573, 367, 704, 675, 998, 1020, 811, 1029, 1021, 1022, 1009
574, 686, 673, 349, 996, 871, 1030, 1031, 1033, 1032, 1034
575, 673, 336, 349, 996, 1035, 548, 1030, 1032, 1036, 1034
576, 327, 664, 704, 998, 1012, 910, 1019, 1013, 1011, 1022
577, 367, 675, 338, 998, 1029, 1008, 474, 1021, 1009, 1010
578, 371, 336, 708, 996, 647, 1037, 1038, 1039, 1036, 1040
579, 708, 686, 371, 996, 980, 1041, 1038, 1040, 1033, 1039
580, 680, 343, 383, 997, 1028, 655, 1023, 1025, 1018, 1027
581, 708, 658, 321, 724, 845, 1042, 1043, 846, 843, 1044
582, 658, 321, 707, 723, 1042, 1045, 841, 839, 1046, 840
583, 349, 371, 686, 996, 644, 1041, 1031, 1034, 1039, 1033
584, 673, 708, 336, 996, 984, 1037, 1035, 1032, 1040, 1036
** ... 681 like lines cut

** Define element set Eall
*ELSET, ELSET=Eall
Evolumes



***********************************************************
** Element sets for materials and FEM element type (solid, shell, beam, fluid)
*ELSET,ELSET=MaterialSolidSolid
Evolumes

***********************************************************
** constraints fixed node sets
** ConstraintFixed
*NSET,NSET=ConstraintFixed
1,
2,
3,
4,
7,
8,
9,
10,
11,
12,
13,
14,
15,
16,
17,
18,
19,
20,
21,
22,
** ... 143 like lines cut

** Physical constants for SI(mm) unit system with Kelvins
*PHYSICAL CONSTANTS, ABSOLUTE ZERO=0, STEFAN BOLTZMANN=5.670374419e-11

***********************************************************
** Materials
** see information about units at file end
** FreeCAD material name: Aluminum-6061-T6
** MaterialSolid
*MATERIAL, NAME=MaterialSolid
*ELASTIC
69000,0.33

***********************************************************
** Sections
*SOLID SECTION, ELSET=MaterialSolidSolid, MATERIAL=MaterialSolid

***********************************************************
** At least one step is needed to run an CalculiX analysis of FreeCAD
*STEP, INC=2000
*STATIC


***********************************************************
** Fixed Constraints
** ConstraintFixed
*BOUNDARY
ConstraintFixed,1
ConstraintFixed,2
ConstraintFixed,3


***********************************************************
** constraints force node loads
*CLOAD
** ConstraintForce
** node loads on shape: Pad:Face6
2,3,-0
4,3,-0
6,3,-0
8,3,-0
26,3,-0
27,3,-0
28,3,-0
29,3,-0
30,3,-0
31,3,-0
32,3,-0
33,3,-0.202323175956
34,3,-0.1526746430957
35,3,-0.2109083940295
36,3,-0.2069082358794
37,3,-0.1820436430041
38,3,-0.2032810260049
39,3,-0.1511491694907
40,3,-0.202323175956
57,3,-0
** ... 381 like lines cut



***********************************************************
** Outputs --> frd file
*NODE FILE
U
*EL FILE
S, E
** outputs --> dat file
** reaction forces for Constraint fixed
*NODE PRINT, NSET=ConstraintFixed, TOTALS=ONLY
RF

*OUTPUT, FREQUENCY=1
***********************************************************
*END STEP

***********************************************************
** CalculiX Input file
**   written by    --> FreeCAD 1.0.2
**   written on    --> Mon Mar 23 18:41:51 2026
**   file name     --> fea_test_1.FCStd
**   analysis name --> Analysis
**
**
***********************************************************
**  About units:
**  See ccx manual, ccx does not know about any unit.
**  Golden rule: The user must make sure that the numbers they provide have consistent units.
**  The user is the FreeCAD calculix writer module ;-)
**
**  The unit system which is used at Guido Dhondt's company: mm, N, s, K
**  Since Length and Mass are connected by Force, if Length is mm the Mass is in t to get N
**  The following units are used to write to inp file:
**
**  Length: mm (this includes the mesh geometry)
**  Mass: t
**  TimeSpan: s
**  Temperature: K
**
**  This leads to:
**  Force: N
**  Pressure: N/mm^2 == MPa (Young's Modulus has unit Pressure)
**  Density: t/mm^3
**  Gravity: mm/s^2
**  Thermal conductivity: t*mm/K/s^3 == as W/m/K == kW/mm/K
**  Specific Heat: mm^2/s^2/K = J/kg/K == kJ/t/K
**
