** written by FreeCAD inp file writer for CalculiX,Abaqus meshes
** highest dimension mesh elements only.

** Nodes
*Node, NSET=Nall
1, 0, 0, 1000
2, 0, 0, 0
3, 0, 1000, 1000
4, 0, 1000, 0
5, 8000, 0, 1000
6, 8000, 0, 0
7, 8000, 1000, 1000
8, 8000, 1000, 0
9, 0, 0, 500
10, 0, 0, 250
11, 0, 0, 750
12, 0, 500, 1000
13, 0, 250, 1000
14, 0, 750, 1000
15, 0, 1000, 500
16, 0, 1000, 250
17, 0, 1000, 750
18, 0, 500, 0
19, 0, 250, 0
20, 0, 750, 0
** ... 549 like lines cut


** Volume elements
*Element, TYPE=C3D10, ELSET=Evolumes
277, 168, 301, 368, 167, 437, 435, 436, 214, 438, 439
278, 239, 372, 171, 374, 442, 440, 441, 443, 394, 444
279, 172, 307, 306, 239, 446, 327, 445, 448, 447, 449
280, 306, 239, 238, 372, 449, 260, 450, 451, 442, 452
281, 306, 171, 172, 239, 453, 193, 445, 449, 441, 448
282, 239, 171, 172, 374, 441, 193, 448, 443, 444, 454
283, 171, 239, 306, 372, 441, 449, 453, 440, 442, 451
284, 172, 304, 307, 239, 455, 330, 446, 448, 456, 447
285, 168, 368, 301, 234, 436, 435, 437, 458, 457, 459
286, 170, 371, 239, 374, 462, 460, 461, 463, 397, 443
287, 239, 172, 170, 374, 448, 196, 461, 443, 454, 463
288, 304, 172, 170, 239, 455, 196, 464, 456, 448, 461
289, 304, 239, 170, 371, 456, 461, 464, 465, 460, 462
290, 239, 304, 237, 371, 456, 466, 263, 460, 465, 467
291, 301, 234, 302, 168, 459, 468, 348, 437, 458, 469
292, 368, 234, 168, 369, 457, 458, 436, 415, 470, 471
293, 237, 304, 240, 371, 466, 472, 266, 467, 465, 473
294, 173, 304, 170, 371, 474, 464, 199, 475, 465, 462
295, 235, 369, 370, 302, 477, 412, 476, 479, 478, 480
296, 169, 370, 369, 302, 482, 412, 481, 483, 480, 478
** ... 222 like lines cut

** Define element set Eall
*ELSET, ELSET=Eall
Evolumes



***********************************************************
** Element sets for materials and FEM element type (solid, shell, beam, fluid)
*ELSET,ELSET=MaterialSolidSolid
Evolumes

***********************************************************
** constraints fixed node sets
** ConstraintFixed
*NSET,NSET=ConstraintFixed
1,
2,
3,
4,
9,
10,
11,
12,
13,
14,
15,
16,
17,
18,
19,
20,
117,
118,
119,
120,
** ... 21 like lines cut

** Physical constants for SI(mm) unit system with Kelvins
*PHYSICAL CONSTANTS, ABSOLUTE ZERO=0, STEFAN BOLTZMANN=5.670374419e-11

***********************************************************
** Materials
** see information about units at file end
** FreeCAD material name: CalculiX-Steel
** MaterialSolid
*MATERIAL, NAME=MaterialSolid
*ELASTIC
210000,0.3

***********************************************************
** Sections
*SOLID SECTION, ELSET=MaterialSolidSolid, MATERIAL=MaterialSolid

***********************************************************
** At least one step is needed to run an CalculiX analysis of FreeCAD
*STEP, INC=2000
*STATIC


***********************************************************
** Fixed Constraints
** ConstraintFixed
*BOUNDARY
ConstraintFixed,1
ConstraintFixed,2
ConstraintFixed,3


***********************************************************
** constraints force node loads
*CLOAD
** ConstraintForce
** node loads on shape: Box:Face2
5,3,-0
6,3,-0
7,3,-0
8,3,-0
21,3,-0
22,3,-187500
23,3,-187500
24,3,-0
25,3,-187500
26,3,-187500
27,3,-0
28,3,-187500
29,3,-187500
30,3,-0
31,3,-187500
32,3,-187500
142,3,-0
143,3,-0
144,3,-0
145,3,-0
** ... 21 like lines cut



***********************************************************
** Outputs --> frd file
*NODE FILE
U
*EL FILE
S, E
** outputs --> dat file
** reaction forces for Constraint fixed
*NODE PRINT, NSET=ConstraintFixed, TOTALS=ONLY
RF

*OUTPUT, FREQUENCY=1
***********************************************************
*END STEP

***********************************************************
** CalculiX Input file
**   written by    --> FreeCAD 1.0.2
**   written on    --> Mon Mar 23 20:26:47 2026
**   file name     --> FEMExample.FCStd
**   analysis name --> Analysis
**
**
***********************************************************
**  About units:
**  See ccx manual, ccx does not know about any unit.
**  Golden rule: The user must make sure that the numbers they provide have consistent units.
**  The user is the FreeCAD calculix writer module ;-)
**
**  The unit system which is used at Guido Dhondt's company: mm, N, s, K
**  Since Length and Mass are connected by Force, if Length is mm the Mass is in t to get N
**  The following units are used to write to inp file:
**
**  Length: mm (this includes the mesh geometry)
**  Mass: t
**  TimeSpan: s
**  Temperature: K
**
**  This leads to:
**  Force: N
**  Pressure: N/mm^2 == MPa (Young's Modulus has unit Pressure)
**  Density: t/mm^3
**  Gravity: mm/s^2
**  Thermal conductivity: t*mm/K/s^3 == as W/m/K == kW/mm/K
**  Specific Heat: mm^2/s^2/K = J/kg/K == kJ/t/K
**
