** written by FreeCAD inp file writer for CalculiX,Abaqus meshes
** highest dimension mesh elements only.

** Nodes
*Node, NSET=Nall
1, -52.47756882813, 0, 0
2, -52.47756882813, -25, 5.551115123126e-15
3, -52.47756882813, 6.023439746983e-15, 27.127161
4, -52.47756882813, -25, 27.127161
5, 47.52243117187, 6.023439746983e-15, 27.127161
6, 47.52243117187, -25, 27.127161
7, 47.52243117187, 0, 0
8, 47.52243117187, -25, 5.551115123126e-15
9, -32.480785, 0, 0
10, 27.522949, 0, 0
11, -32.480785, -25, 0
12, 27.522949, -25, 0
13, -52.47756882813, -8.333333333333, 1.850371707709e-15
14, -52.47756882813, -16.66666666667, 3.700743415417e-15
15, -52.47756882813, -4.166666666667, 9.251858538543e-16
16, -52.47756882813, -12.5, 2.775557561563e-15
17, -52.47756882813, -20.83333333333, 4.625929269271e-15
18, -52.47756882813, -8.333333333333, 27.127161
19, -52.47756882813, -16.66666666667, 27.127161
20, -52.47756882813, -4.166666666667, 27.127161
** ... 1082 like lines cut


** Volume elements
*Element, TYPE=C3D10, ELSET=Evolumes
447, 619, 505, 758, 761, 765, 763, 764, 767, 766, 768
448, 756, 190, 497, 761, 771, 769, 770, 773, 772, 774
449, 143, 138, 203, 755, 166, 775, 776, 778, 777, 779
450, 143, 203, 137, 755, 776, 780, 167, 778, 779, 781
451, 619, 505, 502, 758, 765, 536, 782, 764, 763, 783
452, 190, 504, 497, 761, 784, 565, 769, 772, 785, 774
453, 186, 189, 760, 762, 292, 786, 787, 789, 788, 790
454, 369, 136, 731, 755, 793, 791, 792, 795, 794, 796
455, 732, 136, 500, 755, 799, 797, 798, 800, 794, 801
456, 184, 190, 756, 761, 308, 771, 802, 803, 772, 773
457, 731, 136, 728, 755, 791, 804, 747, 796, 794, 805
458, 728, 136, 732, 755, 804, 799, 748, 805, 794, 800
459, 136, 139, 500, 755, 172, 806, 797, 794, 807, 801
460, 140, 136, 369, 755, 176, 793, 808, 809, 794, 795
461, 141, 139, 500, 136, 170, 806, 810, 159, 172, 797
462, 136, 369, 142, 140, 793, 811, 158, 176, 808, 162
463, 500, 732, 141, 136, 798, 812, 810, 797, 799, 159
464, 731, 142, 136, 369, 813, 158, 791, 792, 811, 793
465, 759, 189, 186, 762, 815, 292, 814, 816, 788, 789
466, 657, 645, 756, 760, 708, 817, 818, 820, 819, 821
** ... 499 like lines cut

** Define element set Eall
*ELSET, ELSET=Eall
Evolumes



***********************************************************
** Element sets for materials and FEM element type (solid, shell, beam, fluid)
*ELSET,ELSET=MaterialSolidSolid
Evolumes

***********************************************************
** constraints fixed node sets
** ConstraintFixed
*NSET,NSET=ConstraintFixed
1,
2,
7,
8,
9,
10,
11,
12,
13,
14,
15,
16,
17,
76,
77,
78,
79,
80,
91,
92,
** ... 74 like lines cut

** Physical constants for SI(mm) unit system with Kelvins
*PHYSICAL CONSTANTS, ABSOLUTE ZERO=0, STEFAN BOLTZMANN=5.670374419e-11

***********************************************************
** Materials
** see information about units at file end
** FreeCAD material name: Aluminum-6061-T6
** MaterialSolid
*MATERIAL, NAME=MaterialSolid
*ELASTIC
69000,0.33

***********************************************************
** Sections
*SOLID SECTION, ELSET=MaterialSolidSolid, MATERIAL=MaterialSolid

***********************************************************
** At least one step is needed to run an CalculiX analysis of FreeCAD
*STEP, INC=2000
*STATIC


***********************************************************
** Fixed Constraints
** ConstraintFixed
*BOUNDARY
ConstraintFixed,1
ConstraintFixed,2
ConstraintFixed,3


***********************************************************
** constraints force node loads
*CLOAD
** ConstraintForce
** node loads on shape: Slice:Face2
3,3,-0
4,3,-0
5,3,-0
6,3,-0
18,3,-0
19,3,-0
20,3,-0.4058252765674
21,3,-0.2836194568207
22,3,-0.4012345679012
33,3,-0
34,3,-0
35,3,-0.4066640298262
36,3,-0.2841343241528
37,3,-0.4039998859673
38,3,-0
39,3,-0
40,3,-0
41,3,-0
42,3,-0
43,3,-0
** ... 163 like lines cut



***********************************************************
** Outputs --> frd file
*NODE FILE
U
*EL FILE
S, E
** outputs --> dat file
** reaction forces for Constraint fixed
*NODE PRINT, NSET=ConstraintFixed, TOTALS=ONLY
RF

*OUTPUT, FREQUENCY=1
***********************************************************
*END STEP

***********************************************************
** CalculiX Input file
**   written by    --> FreeCAD 1.0.2
**   written on    --> Thu Mar 19 23:23:28 2026
**   file name     --> 
**   analysis name --> Analysis
**
**
***********************************************************
**  About units:
**  See ccx manual, ccx does not know about any unit.
**  Golden rule: The user must make sure that the numbers they provide have consistent units.
**  The user is the FreeCAD calculix writer module ;-)
**
**  The unit system which is used at Guido Dhondt's company: mm, N, s, K
**  Since Length and Mass are connected by Force, if Length is mm the Mass is in t to get N
**  The following units are used to write to inp file:
**
**  Length: mm (this includes the mesh geometry)
**  Mass: t
**  TimeSpan: s
**  Temperature: K
**
**  This leads to:
**  Force: N
**  Pressure: N/mm^2 == MPa (Young's Modulus has unit Pressure)
**  Density: t/mm^3
**  Gravity: mm/s^2
**  Thermal conductivity: t*mm/K/s^3 == as W/m/K == kW/mm/K
**  Specific Heat: mm^2/s^2/K = J/kg/K == kJ/t/K
**
